LTspice 24.1.9 for Windows
Circuit: C:\_DATA\Desktop\ASC Parser\Assets\Component Symbols\TCLib\Draft1.net
Start Time: Mon Mar 30 01:54:26 2026
solver = Normal
Maximum thread count: 12
tnom = 27
temp = 27
method = trap
Direct Newton iteration for .op point succeeded.
Total elapsed time: 0.036 seconds.

Files loaded:
C:\_DATA\Desktop\ASC Parser\Assets\Component Symbols\TCLib\Draft1.net
C:\Users\TC2\AppData\Local\LTspice\lib\sub\TCLib\npn_ideal.lib
C:\Users\TC2\AppData\Local\LTspice\lib\sub\TCLib\vcc.lib

